LS-DYNA_WIKI

CONTROL
  CONTROL_ALE
  CONTROL

SECTION  
  SECTION_SOLID
  SECTION