LS-DYNA_WIKI

CONSTRAINED
  CONSTRAINED_LAGRANGE_IN_SOLID

CONTROL
  CONTROL_ALE
  CONTROL

SECTION
  SECTION_SOLID
  SECTION

SET
  SET_PART
  SET