LS-DYNA_WIKI

ALE
  ALE_SOLID

CONTROL
  CONTROL_ALE