LS-DYNA_WIKI

CONTROL
  CONTROL
  CONTROL_ALE

SECTION
  SECTION
  SECTION_SOLID